<routes>


    <flow id="010" type="Car" begin="0" end="3600" number="1440" from="edge1-0" to="edge0-2" departPos="1" departLane="best" departSpeed="5.0"/>
    <flow id="020" type="Car" begin="0" end="3600" number="1440" from="edge2-0" to="edge0-1" departPos="2" departLane="best" departSpeed="5.0"/>
    <flow id="071" type="TrafficCar" begin="0" end="3600" number="200" from="edge3-0" to="edge0-4" departPos="3" departLane="best" departSpeed="5.0"/>
    <flow id="081" type="TrafficCar" begin="0" end="3600" number="200" from="edge4-0" to="edge0-3" departPos="4" departLane="best" departSpeed="5.0"/>
    <flow id="072" type="TrafficCar" begin="30" end="50" number="20" from="edge3-0" to="edge0-4" departPos="3" departLane="best" departSpeed="5.0"/>
    <flow id="082" type="TrafficCar" begin="30" end="50" number="20" from="edge4-0" to="edge0-3" departPos="4" departLane="best" departSpeed="5.0"/>
    <flow id="011" type="Car" begin="1830" end="1850" number="20" from="edge1-0" to="edge0-2" departPos="1" departLane="best" departSpeed="5.0"/>
    <flow id="021" type="Car" begin="1830" end="1850" number="20" from="edge2-0" to="edge0-1" departPos="2" departLane="best" departSpeed="5.0"/>
    <flow id="073" type="TrafficCar" begin="1830" end="1850" number="20" from="edge3-0" to="edge0-4" departPos="3" departLane="best" departSpeed="5.0"/>
    <flow id="083" type="TrafficCar" begin="1830" end="1850" number="20" from="edge4-0" to="edge0-3" departPos="4" departLane="best" departSpeed="5.0"/>
    <flow id="030" type="Car" begin="3600" end="7200" number="1440" from="edge3-0" to="edge0-4" departPos="3" departLane="best" departSpeed="5.0"/>
    <flow id="040" type="Car" begin="3600" end="7200" number="1440" from="edge4-0" to="edge0-3" departPos="4" departLane="best" departSpeed="5.0"/>
    <flow id="051" type="TrafficCar" begin="3600" end="7200" number="200" from="edge1-0" to="edge0-2" departPos="1" departLane="best" departSpeed="5.0"/>
    <flow id="061" type="TrafficCar" begin="3600" end="7200" number="200" from="edge2-0" to="edge0-1" departPos="2" departLane="best" departSpeed="5.0"/>
    <flow id="052" type="TrafficCar" begin="3630" end="3650" number="20" from="edge1-0" to="edge0-2" departPos="1" departLane="best" departSpeed="5.0"/>
    <flow id="062" type="TrafficCar" begin="3630" end="3650" number="20" from="edge2-0" to="edge0-1" departPos="2" departLane="best" departSpeed="5.0"/>
    <flow id="031" type="Car" begin="5430" end="5450" number="20" from="edge3-0" to="edge0-4" departPos="3" departLane="best" departSpeed="5.0"/>
    <flow id="041" type="Car" begin="5430" end="5450" number="20" from="edge4-0" to="edge0-3" departPos="4" departLane="best" departSpeed="5.0"/>
    <flow id="053" type="TrafficCar" begin="5430" end="5450" number="20" from="edge1-0" to="edge0-2" departPos="1" departLane="best" departSpeed="5.0"/>
    <flow id="063" type="TrafficCar" begin="5430" end="5450" number="20" from="edge2-0" to="edge0-1" departPos="2" departLane="best" departSpeed="5.0"/>

    <flow id="11" type="Car" begin="7200" end="14400" number="270" from="edge1-0" to="edge0-2" departPos="1" departLane="best" departSpeed="5.0"/>
    <flow id="12" type="Car" begin="7200" end="14400" number="270" from="edge2-0" to="edge0-1" departPos="2" departLane="best" departSpeed="5.0"/>
    <flow id="13" type="Car" begin="7200" end="14400" number="120" from="edge3-0" to="edge0-4" departPos="3" departLane="best" departSpeed="5.0"/>
    <flow id="13a" type="TrafficCar" begin="7200" end="14400" number="120" from="edge3-0" to="edge0-4" departPos="3" departLane="best" departSpeed="5.0"/>
    <flow id="14" type="Car" begin="7200" end="14400" number="120" from="edge4-0" to="edge0-3" departPos="4" departLane="best" departSpeed="5.0"/>
    <flow id="14a" type="TrafficCar" begin="7200" end="14400" number="120" from="edge4-0" to="edge0-3" departPos="4" departLane="best" departSpeed="5.0"/>

    <flow id="21" type="Car" begin="14400" end="21600" number="1440" from="edge1-0" to="edge0-2" departPos="1" departLane="best" departSpeed="5.0"/>
    <flow id="22" type="Car" begin="14400" end="21600" number="1440" from="edge2-0" to="edge0-1" departPos="2" departLane="best" departSpeed="5.0"/>
    <flow id="23" type="TrafficCar" begin="14400" end="21600" number="240" from="edge3-0" to="edge0-4" departPos="3" departLane="best" departSpeed="5.0"/>
    <flow id="24" type="TrafficCar" begin="14400" end="21600" number="240" from="edge4-0" to="edge0-3" departPos="4" departLane="best" departSpeed="5.0"/>

    <flow id="31" type="Car" begin="21600" end="28800" number="1440" from="edge1-0" to="edge0-2" departPos="1" departLane="best" departSpeed="5.0"/>
    <flow id="32" type="Car" begin="21600" end="28800" number="1440" from="edge2-0" to="edge0-1" departPos="2" departLane="best" departSpeed="5.0"/>
    <flow id="33" type="Car" begin="21600" end="28800" number="1440" from="edge3-0" to="edge0-4" departPos="3" departLane="best" departSpeed="5.0"/>
    <flow id="34" type="Car" begin="21600" end="28800" number="1440" from="edge4-0" to="edge0-3" departPos="4" departLane="best" departSpeed="5.0"/>

    <flow id="41" type="Car" begin="21600" end="28800" number="1440" from="edge1-0" to="edge0-2" departPos="1" departLane="best" departSpeed="5.0"/>
    <flow id="42" type="Car" begin="21600" end="28800" number="1440" from="edge2-0" to="edge0-1" departPos="2" departLane="best" departSpeed="5.0"/>
    <flow id="43" type="Car" begin="21600" end="28800" number="720" from="edge3-0" to="edge0-4" departPos="3" departLane="best" departSpeed="5.0"/>
    <flow id="43a" type="TrafficCar" begin="21600" end="28800" number="720" from="edge3-0" to="edge0-4" departPos="3" departLane="best" departSpeed="5.0"/>
    <flow id="44" type="Car" begin="21600" end="28800" number="720" from="edge4-0" to="edge0-3" departPos="4" departLane="best" departSpeed="5.0"/>
    <flow id="44a" type="TrafficCar" begin="21600" end="28800" number="720" from="edge4-0" to="edge0-3" departPos="4" departLane="best" departSpeed="5.0"/>


</routes>
